# 学习项目 P1–P5 的 Python 依赖（P3 的 SCALE-Sim/Timeloop 建议在 WSL2 中另行安装，见 learning/p3_arch_eval/README.md）
torch>=2.4
numpy>=1.26
matplotlib>=3.8
pytest>=8.0
# 可选：与 pyproject.toml / .cursor/rules 对齐的格式化与 lint
# ruff>=0.9
# P2 小模型量化实验
transformers>=4.44
datasets>=2.20
scipy>=1.11
tokenizers>=0.22
# P3 SCALE-Sim（WSL2 内安装亦可）
# scalesim
